Version 4
SHEET 1 1476 680
WIRE 0 -96 -208 -96
WIRE 176 -96 0 -96
WIRE 272 -96 176 -96
WIRE 368 -96 368 -160
WIRE 368 -96 272 -96
WIRE 672 -96 368 -96
WIRE 816 -96 672 -96
WIRE 672 -80 672 -96
WIRE 816 -80 816 -96
WIRE -208 -64 -208 -96
WIRE 0 -64 0 -96
WIRE 880 -64 864 -64
WIRE -112 -48 -160 -48
WIRE 64 -48 48 -48
WIRE 304 -48 304 -176
WIRE 416 -32 352 -32
WIRE 672 -32 672 -64
WIRE 816 -32 816 -64
WIRE -208 -16 -208 -48
WIRE 0 -16 0 -48
WIRE 272 0 272 -96
WIRE 304 0 272 0
WIRE 624 0 608 0
WIRE 176 16 176 -96
WIRE 416 48 416 -32
WIRE 672 48 672 16
WIRE 672 48 416 48
WIRE 880 48 880 -64
WIRE 880 48 672 48
WIRE 176 64 176 32
WIRE -208 96 -208 32
WIRE -112 96 -112 -48
WIRE -112 96 -208 96
WIRE 64 96 64 -48
WIRE 64 96 -112 96
WIRE 128 96 64 96
WIRE 608 128 608 0
WIRE 608 128 480 128
WIRE 176 144 176 112
WIRE 304 144 304 48
WIRE 304 144 176 144
WIRE 352 144 304 144
WIRE -96 160 -160 160
WIRE 0 160 0 32
WIRE 0 160 -96 160
WIRE 128 160 0 160
WIRE 480 160 480 128
WIRE 480 160 128 160
WIRE 816 160 816 16
WIRE 816 160 528 160
WIRE -208 176 -208 96
WIRE 0 176 0 160
WIRE 128 176 128 160
WIRE 176 176 176 144
WIRE 256 176 176 176
WIRE 352 176 352 144
WIRE 528 176 528 160
WIRE 672 176 672 48
WIRE 816 176 816 160
WIRE -160 192 -160 160
WIRE 304 192 304 144
WIRE 880 192 880 48
WIRE 880 192 864 192
WIRE 480 208 464 208
WIRE 128 224 128 192
WIRE -208 256 -208 224
WIRE 256 256 256 224
WIRE 608 256 608 128
WIRE 624 256 608 256
WIRE 672 256 672 224
WIRE 816 256 816 224
WIRE 128 272 128 256
WIRE -208 304 -208 272
WIRE 0 304 0 240
WIRE 0 304 -208 304
WIRE 128 304 128 272
WIRE 128 304 0 304
WIRE 256 304 256 272
WIRE 256 304 128 304
WIRE 352 304 352 240
WIRE 352 304 256 304
WIRE 400 304 352 304
WIRE 464 304 464 208
WIRE 464 304 400 304
WIRE 672 304 672 272
WIRE 672 304 464 304
WIRE 816 304 816 272
WIRE 816 304 672 304
WIRE 400 352 400 304
WIRE -96 368 -96 160
FLAG 400 352 0
FLAG 368 -160 VDD
FLAG 304 -176 VD
FLAG 480 256 VC
FLAG -96 368 Iex
FLAG 592 -320 0
FLAG 704 -320 0
FLAG 816 -320 0
FLAG 912 -320 0
FLAG 592 -400 VDD
FLAG 704 -400 VD
FLAG 816 -400 VC
FLAG 912 -400 Iex
SYMBOL nmos4 -160 272 R180
SYMATTR InstName M1
SYMATTR Value2 l=250n w=575n
SYMBOL pmos4 -160 32 R180
SYMATTR InstName M2
SYMATTR Value2 l=250n w=575n
SYMBOL pmos4 48 32 R180
SYMATTR InstName M3
SYMATTR Value2 l=250n w=575n
SYMBOL cap -16 176 R0
SYMATTR InstName C1
SYMATTR Value 35f
SYMBOL nmos4 176 272 R180
SYMATTR InstName M4
SYMATTR Value2 l=180n w=1.9u
SYMBOL pmos4 128 16 R0
SYMATTR InstName M7
SYMATTR Value2 l=700n w=350n
SYMBOL nmos4 304 272 R180
SYMATTR InstName M6
SYMATTR Value2 l=180n w=1u
SYMBOL pmos4 352 48 R180
SYMATTR InstName M8
SYMATTR Value2 l=250n w=2.6u
SYMBOL cap 336 176 R0
SYMATTR InstName C2
SYMATTR Value 550f
SYMBOL pmos4 624 -80 R0
SYMATTR InstName M9
SYMATTR Value2 l=180n w=2.2u
SYMBOL pmos4 864 16 R180
SYMATTR InstName M11
SYMATTR Value2 l=180n w=220n
SYMBOL nmos4 624 176 R0
SYMATTR InstName M10
SYMATTR Value2 l=180n w=220n
SYMBOL nmos4 864 272 R180
SYMATTR InstName M12
SYMATTR Value2 l=180n w=2.2u
SYMBOL nmos4 528 256 R180
SYMATTR InstName M5
SYMATTR Value2 l=1.325u w=250n
SYMBOL voltage 592 -416 R0
WINDOW 123 0 0 Left 0
WINDOW 39 0 0 Left 0
SYMATTR InstName V1
SYMATTR Value 0.2
SYMBOL voltage 704 -416 R0
WINDOW 123 0 0 Left 0
WINDOW 39 0 0 Left 0
SYMATTR InstName V2
SYMATTR Value 0.18
SYMBOL voltage 816 -416 R0
WINDOW 123 0 0 Left 0
WINDOW 39 0 0 Left 0
SYMATTR InstName V3
SYMATTR Value 0.08
SYMBOL current 912 -400 R0
WINDOW 123 0 0 Left 0
WINDOW 39 0 0 Left 0
SYMATTR InstName I1
SYMATTR Value PWL(0ms 0A 1ms 0A 1.01ms 1pA)
TEXT 192 432 Left 2 !.include p18_cmos_models_tt.inc
TEXT 192 464 Left 2 !.tran 4m
TEXT 200 400 Left 2 !.op
