Version 4
SHEET 1 880 680
SYMBOL pmos4 224 144 R0
SYMATTR InstName M1
SYMBOL pmos4 288 96 R180
SYMATTR InstName M2
SYMBOL pmos4 512 96 R180
SYMATTR InstName M3
SYMBOL pmos4 512 240 R180
SYMATTR InstName M4
